egret/models/tests/pglib_opf_case3_lmbd_lccm_0930.json
{"elements": {"bus": {"1": {"matpower_bustype": "ref", "area": 1.0, "vm": 1.09871158967, "va": 0.0, "base_kv": 240.0, "zone": 1.0, "v_min": 0.9, "v_max": 1.1, "lmp": 31.119379207199998, "qlmp": -0.0008722213995119999, "pl": 102.30000000000004, "ql": 37.2}, "2": {"matpower_bustype": "PV", "area": 1.0, "vm": 0.900000020774, "va": 0.226521729886, "base_kv": 240.0, "zone": 1.0, "v_min": 0.9, "v_max": 1.1, "lmp": 31.2673293086, "qlmp": -0.0009999997524159998, "pl": 102.30000000000004, "ql": 37.2}, "3": {"matpower_bustype": "PV", "area": 1.0, "vm": 0.900000015657, "va": -0.233798433435, "base_kv": 240.0, "zone": 1.0, "v_min": 0.9, "v_max": 1.1, "lmp": 32.8175240618, "qlmp": -0.000999996836101, "pl": 88.35000000000001, "ql": 46.5}}, "load": {"load_1": {"in_service": true, "p_load": 102.30000000000004, "q_load": 37.2, "bus": "1"}, "load_2": {"in_service": true, "p_load": 102.30000000000004, "q_load": 37.2, "bus": "2"}, "load_3": {"in_service": true, "p_load": 88.35000000000001, "q_load": 46.5, "bus": "3"}}, "generator": {"1": {"bus": "1", "pg": 118.72445094599999, "qg": 54.6972302062, "vg": 1.0, "mbase": 100.0, "in_service": true, "p_min": 0.0, "p_max": 2000.0, "q_min": -1000.0, "q_max": 1000.0, "generator_type": "thermal", "p_cost": {"data_type": "cost_curve", "cost_curve_type": "polynomial", "values": {"0": 0.0, "1": 5.0, "2": 0.11}}, "startup_cost": 0.0, "shutdown_cost": 0.0}, "2": {"bus": "2", "pg": 176.86664299199998, "qg": -14.7840176667, "vg": 1.0, "mbase": 100.0, "in_service": true, "p_min": 0.0, "p_max": 2000.0, "q_min": -1000.0, "q_max": 1000.0, "generator_type": "thermal", "p_cost": {"data_type": "cost_curve", "cost_curve_type": "polynomial", "values": {"0": 0.0, "1": 1.2, "2": 0.08500000000000002}}, "startup_cost": 0.0, "shutdown_cost": 0.0}, "3": {"bus": "3", "pg": 0.0, "qg": -5.36120080249, "vg": 1.0, "mbase": 100.0, "in_service": true, "p_min": 0.0, "p_max": 0.0, "q_min": -1000.0, "q_max": 1000.0, "generator_type": "thermal", "p_cost": {"data_type": "cost_curve", "cost_curve_type": "polynomial", "values": {"0": 0.0, "1": 0.0, "2": 0.0}}, "startup_cost": 0.0, "shutdown_cost": 0.0}}, "branch": {"1": {"from_bus": "1", "to_bus": "3", "resistance": 0.065, "reactance": 0.62, "charging_susceptance": 0.45, "branch_type": "line", "rating_long_term": 9000.0, "rating_short_term": 9000.0, "rating_emergency": 9000.0, "in_service": true, "angle_diff_min": -30.0, "angle_diff_max": 30.0, "pf": 40.0353275926, "qf": 22.303938589, "pt": -49.14556828305927, "qt": -34.90846563423724, "pfl": 1.49734956452, "qfl": -24.8672498886, "pf_dual": -169.814485461, "qf_dual": 0.0127775436588, "Ft": {"1": 1.5082326205710606, "2": 0.0, "3": -1.5082326205710606}, "Lt": {"1": 0.0982993257298569, "2": 0.0, "3": -0.0982993257298569}, "ft_c": 0.047730851981048095, "lt_c": -0.008008732718124821, "Fv": {"1": 1.4627236024892356, "2": 0.0, "3": -1.287942193576735}, "Lv": {"1": 0.27256910005823176, "2": 0.0, "3": -0.8849651315931717}, "fv_c": -0.22492399425954895, "lv_c": 0.24832130418489973}, "2": {"from_bus": "3", "to_bus": "2", "resistance": 0.025, "reactance": 0.75, "charging_susceptance": 0.7, "branch_type": "line", "rating_long_term": 50.0, "rating_short_term": 50.0, "rating_emergency": 50.0, "in_service": true, "angle_diff_min": -30.0, "angle_diff_max": 30.0, "pf": -49.4483153672, "qf": 1.52634231644, "pt": 46.52525119736147, "qt": -18.313959121065228, "pfl": 0.769936355239, "qfl": -37.2999591713, "pf_dual": 155.019475296, "qf_dual": 2.93207813209e-07, "Ft": {"1": 0.0, "2": -1.0100042892415857, "3": 1.0100042892415857}, "Lt": {"1": 0.0, "2": 0.03072250373522806, "3": -0.03072250373522806}, "ft_c": -0.029557814293288964, "lt_c": -0.00644282438465805, "Fv": {"1": 0.0, "2": -0.8927780092061325, "3": 0.900736204134567}, "Lv": {"1": 0.0, "2": -0.3623055207055901, "3": -0.4771176830846433}, "fv_c": 0.008101052173214591, "lv_c": 0.38248130669452163}, "3": {"from_bus": "1", "to_bus": "2", "resistance": 0.042, "reactance": 0.9, "charging_susceptance": 0.3, "branch_type": "line", "rating_long_term": 9000.0, "rating_short_term": 9000.0, "rating_emergency": 9000.0, "in_service": true, "angle_diff_min": -30.0, "angle_diff_max": 30.0, "pf": -24.546455438, "qf": 19.717306163, "pt": 13.481042093852826, "qt": -30.47717586747673, "pfl": 0.373808018518, "qfl": -24.1807792032, "pf_dual": -14.7950101408, "qf_dual": 0.0127778352903, "Ft": {"1": 1.120473751711482, "2": -1.120473751711482, "3": 0.0}, "Lt": {"1": -0.013320323537484838, "2": 0.013320323537484838, "3": 0.0}, "ft_c": 0.008347098150196491, "lt_c": 0.0007207374548227801, "Fv": {"1": 1.0606209704007588, "2": -0.880725484775037, "3": 0.0}, "Lv": {"1": 0.07190755265565496, "2": -0.6437509789810543, "3": 0.0}, "fv_c": -0.17549053619797453, "lv_c": 0.2585624409372438}}}, "system": {"model_name": "pglib_opf_case3_lmbd", "mpc_version": "'2'", "baseMVA": 100.0, "reference_bus": "1", "reference_bus_angle": 0.0, "total_cost": 5015.327014853509, "ploss": 2.6410939382770002, "qloss": -86.34798826309999, "mult": 0.93}, "results": {"time": 0.2488398551940918, "#_cons": 58, "#_vars": 36, "#_nz": 138, "termination": "optimal"}}